<configuration>

  <input>
    <net-file value="most.net.xml"/>
    <route-files value="most_1.rou.xml"/>
    <gui-settings-file value="sample.settings.xml"/>
  </input>

  <time>
    <begin value="0"/>
    <end value="3600"/>
  </time>

  <gui_only>
	<S value="t"/>
	<Q value="t"/>
    </gui_only>

  <output>
    <tripinfo-output value="sample.tripinfo.xml"/>
  </output>

</configuration>
